<?xml version="1.0" encoding="UTF-8"?>
<population xmlns="http://www.matsim.org/files/dtd"
            xmlns:xsi="http://www.w3.org/2001/XMLSchema-instance"
            xsi:schemaLocation="http://www.matsim.org/files/dtd Population.xsd">
    <metadata>
        <total_population>100000</total_population>
        <population_statistics>
            <!-- Medical Workers -->
            <personal_category id="Medical workers" total="15000" proportion="0.15">
                <role id="Patient Diagnosis" count="5000" proportion="0.33" />
                <role id="Surgery" count="5000" proportion="0.33" />
                <role id="Patient Transport" count="3000" proportion="0.2" />
                <role id="First Aid" count="2000" proportion="0.14" />
            </personal_category>

            <!-- Firefighters -->
            <personal_category id="Firefighters" total="10000" proportion="0.10">
                <role id="Fire Suppression" count="4000" proportion="0.4" />
                <role id="Rescue Operations" count="3000" proportion="0.3" />
                <role id="Evacuation Support" count="2000" proportion="0.2" />
                <role id="First Aid" count="1000" proportion="0.1" />
            </personal_category>

            <!-- Soldiers -->
            <personal_category id="Soldiers" total="20000" proportion="0.2">
                <role id="Search and Rescue" count="5000" proportion="0.25" />
                <role id="Logistics Support" count="5000" proportion="0.25" />
                <role id="Security and Stability Management" count="4000" proportion="0.2" />
                <role id="Maintenance and Technical Support" count="3000" proportion="0.15" />
                <role id="First Aid" count="2000" proportion="0.1" />
                <role id="Patient Transport" count="1000" proportion="0.05" />
            </personal_category>

            <!-- Police -->
            <personal_category id="Police" total="10000" proportion="0.10">
                <role id="Evacuation Support" count="3000" proportion="0.3" />
                <role id="Traffic Management" count="3000" proportion="0.3" />
                <role id="Law Enforcement" count="2000" proportion="0.2" />
                <role id="Rescue Support" count="2000" proportion="0.2" />
            </personal_category>

            <!-- Journalists -->
            <personal_category id="Journalists" total="5000" proportion="0.05">
                <role id="Field Reporting" count="5000" proportion="1.0" />
            </personal_category>

            <!-- Bus Drivers -->
            <personal_category id="Bus Drivers" total="5000" proportion="0.05">
                <role id="Evacuee Transport" count="4000" proportion="0.8" />
                <role id="Rescue Transport" count="1000" proportion="0.2" />
            </personal_category>

            <!-- Facility Managers -->
            <personal_category id="Facility Managers" total="5000" proportion="0.05">
                <role id="Facility Inspection" count="3000" proportion="0.6" />
                <role id="Temporary Facility Management" count="2000" proportion="0.4" />
            </personal_category>

            <!-- Heavy Equipment Operators -->
            <personal_category id="Heavy Equipment Operators" total="5000" proportion="0.05">
                <role id="Debris Removal" count="2000" proportion="0.4" />
                <role id="Rescue Operations" count="2000" proportion="0.4" />
                <role id="Road Repair" count="1000" proportion="0.2" />
            </personal_category>

            <!-- Volunteers -->
            <personal_category id="Volunteers" total="15000" proportion="0.15">
                <role id="Relief Goods Distribution" count="7000" proportion="0.47" />
                <role id="Shelter Support" count="5000" proportion="0.33" />
                <role id="Rescue Operations Support" count="3000" proportion="0.2" />
            </personal_category>

            <!-- Casualties -->
            <personal_category id="Casualties" total="15000" proportion="0.15">
                <role id="Minor First Aid Request" count="10000" proportion="0.67" />
                <role id="Serious First Aid Request" count="5000" proportion="0.33" />
            </personal_category>

            <!-- Civilians -->
            <personal_category id="Civilians" total="20000" proportion="0.2">
                <role id="Immediate Evacuation" count="10000" proportion="0.5" />
                <role id="Move After Securing Safety" count="5000" proportion="0.25" />
                <role id="Requesting Rescue" count="5000" proportion="0.25" />
            </personal_category>
        </population_statistics>
    </metadata>

    <!-- 의료종사자 -->
    <personal_category id="MedicalWorkers" final_destination="안전 확보 지역">
        <attributes>
            <attribute name="Accessibility">
                <focus>경로가 통행 가능하고 안전한지 확인</focus>
                <key_elements>장애물(예: 잔해, 홍수) 확인, 차량 통행 적합성 검토, 교통 체증 회피</key_elements>
                <tools>GPS 또는 지도 활용하여 실시간 업데이트 확인</tools>
                <default>최적의 접근 경로 선택</default>
            </attribute>
            <attribute name="ProximityToResources">
                <focus>가장 가까운 필요한 장소로 연결되는 경로 선택</focus>
                <key_elements>병원, 대피소, 또는 공급 지점까지의 거리 확인, 우선적으로 필요한 지역 선정</key_elements>
                <tools>지역 지도를 통한 확인</tools>
                <default>자원 근접성이 높은 경로 우선</default>
            </attribute>
            <attribute name="Safety">
                <focus>팀과 환자의 위험 최소화</focus>
                <key_elements>재난 위험 지역, 분쟁 지역, 불안정한 인프라 회피</key_elements>
                <tools>현장 점검 및 사전 경로 조사</tools>
                <default>안전성이 높은 경로 선택</default>
            </attribute>
            <attribute name="PriorityAreas">
                <focus>가장 긴급한 도움이 필요한 지역 지원</focus>
                <key_elements>부상자 심각성, 다른 응급 구조 팀과의 협력, 중복 노력 방지</key_elements>
                <tools>우선순위 설정 도구 활용</tools>
                <default>긴급 지역 우선</default>
            </attribute>
            <attribute name="SpeedAndTime">
                <focus>목적지까지 가장 빠른 경로 선택</focus>
                <key_elements>짧은 경로보다 명확한 경로 선호, 필요 시 공중 운송 이용</key_elements>
                <tools>교통 상황 실시간 업데이트</tools>
                <default>최단 시간 경로 우선</default>
            </attribute>
            <attribute name="Communication">
                <focus>정확하고 최신 정보를 바탕으로 결정</focus>
                <key_elements>지휘본부와의 협력, 무전기 또는 통신 도구 사용</key_elements>
                <tools>무전기, 위성통신 도구</tools>
                <default>효율적 정보 공유</default>
            </attribute>
        </attributes>
        <roles>
            <role id="PatientDiagnosis">
                <person id="MD1">
                    <name>의사 A</name>
                    <attributes>
                        <attribute name="Accessibility">안전하고 접근 가능한 경로</attribute>
                        <attribute name="ProximityToResources">가장 가까운 병원 접근</attribute>
                        <attribute name="Safety">분쟁 지역 회피</attribute>
                        <attribute name="PriorityAreas">응급 진단 필요 환자</attribute>
                        <attribute name="SpeedAndTime">빠르게 환자 위치 도달</attribute>
                        <attribute name="Communication">의료 본부와 실시간 협력</attribute>
                    </attributes>
                    <plan>
                        <activity destination="재난지역">
                        <destination_links>link_1, link_2</destination_links>
                        </activity>
                        <transport_mode>앰블런스</transport_mode>
                        <activity destination="병원">
                        <destination_links>link_3, link_4</destination_links>
                        </activity>
                    </plan>
                </person>
                <person id="MD2">
                    <name>의사 B</name>
                    <attributes>
                        <attribute name="Accessibility">장애물 없는 경로 확보</attribute>
                        <attribute name="ProximityToResources">필요 물자와 가까운 위치</attribute>
                        <attribute name="Safety">안전 지역 우선</attribute>
                        <attribute name="PriorityAreas">응급 환자 진단</attribute>
                        <attribute name="SpeedAndTime">최단 시간에 이동</attribute>
                        <attribute name="Communication">팀 간 협조 유지</attribute>
                    </attributes>
                    <plan>
                        <activity destination="안전지역">
                            <destination_links>link_5, link_6</destination_links>
                        </activity>
                        <transport_mode>개인차량</transport_mode>
                        <activity destination="병원">
                            <destination_links>link_7, link_8</destination_links>
                        </activity>
                    </plan>
                </person>
                <person id="MD3">
                    <name>의사 C</name>
                    <attributes>
                        <attribute name="Accessibility">장애물 없는 경로 확보</attribute>
                        <attribute name="ProximityToResources">필요 물자와 가까운 위치</attribute>
                        <attribute name="Safety">안전 지역 우선</attribute>
                        <attribute name="PriorityAreas">응급 환자 진단</attribute>
                        <attribute name="SpeedAndTime">최단 시간에 이동</attribute>
                        <attribute name="Communication">팀 간 협조 유지</attribute>
                    </attributes>
                    <plan>
                            <activity destination="군대">
                                <destination_links>link_13, link_14</destination_links>
                            </activity>
                            <transport_mode>군용 차량</transport_mode>
                            <activity destination="재난지역">
                                <destination_links>link_15, link_16</destination_links>
                            </activity>
                            <activity destination="병원">
                                <destination_links>link_17, link_18</destination_links>
                            </activity>
                    </plan>
                </person>
            </role>
            <role id="Surgery">
                <person id="Surgeon1">
                    <name>외과 의사 A</name>
                    <attributes>
                        <attribute name="Accessibility">잔해 없는 경로</attribute>
                        <attribute name="ProximityToResources">수술 장비 근처 병원</attribute>
                        <attribute name="Safety">재난 위험 지역 회피</attribute>
                        <attribute name="PriorityAreas">응급 수술 필요 환자</attribute>
                        <attribute name="SpeedAndTime">빠르게 도달</attribute>
                        <attribute name="Communication">실시간 정보 공유</attribute>
                    </attributes>
                </person>
                <person id="Surgeon2">
                    <name>외과 의사 B</name>
                    <attributes>
                        <attribute name="Accessibility">명확한 경로</attribute>
                        <attribute name="ProximityToResources">필요 물자가 있는 위치</attribute>
                        <attribute name="Safety">불안정한 구조물 회피</attribute>
                        <attribute name="PriorityAreas">우선 수술 대상</attribute>
                        <attribute name="SpeedAndTime">긴급 이동</attribute>
                        <attribute name="Communication">환자 상태 지속 보고</attribute>
                    </attributes>
                </person>
            </role>
            <role id="FirstAid">
                <person id="FirstAid1">
                    <name>응급처치 요원 A</name>
                    <attributes>
                        <attribute name="Accessibility">응급처치 가능 지역</attribute>
                        <attribute name="ProximityToResources">응급 의료 키트 접근</attribute>
                        <attribute name="Safety">위험 회피</attribute>
                        <attribute name="PriorityAreas">부상자 우선</attribute>
                        <attribute name="SpeedAndTime">신속한 이동</attribute>
                        <attribute name="Communication">현장 정보 공유</attribute>
                    </attributes>
                </person>
                <person id="FirstAid2">
                    <name>응급처치 요원 B</name>
                    <attributes>
                        <attribute name="Accessibility">안전한 도로 확보</attribute>
                        <attribute name="ProximityToResources">필요 자원 근접</attribute>
                        <attribute name="Safety">위험 지역 회피</attribute>
                        <attribute name="PriorityAreas">응급 환자 집중</attribute>
                        <attribute name="SpeedAndTime">긴급 출동</attribute>
                        <attribute name="Communication">의료 팀과 소통</attribute>
                    </attributes>
                </person>
            </role>
        </roles>
    </personal_category>

    <!-- 소방대원 -->
    <personal_category id="Firefighters" final_destination="안전 확보 지역">
        <attributes>
            <attribute name="Accessibility">
                <focus>도로가 차량 통행에 적합하고 장애물이 없어야 한다</focus>
                <key_elements>잔해, 쓰러진 나무, 교통 체증 등 병목 구간 회피</key_elements>
                <tools>GPS 또는 실시간 지도</tools>
                <default>최적의 도로 조건 확보</default>
            </attribute>
            <attribute name="ProximityToResources">
                <focus>경로는 물 공급원 또는 보급 기지로 연결되어야 한다</focus>
                <key_elements>소방 장비, 연료, 보급 지점으로의 접근 가능성 확보</key_elements>
                <tools>물 공급 지도 및 장비 현황 도구</tools>
                <default>가장 가까운 보급 위치 확인</default>
            </attribute>
            <attribute name="Safety">
                <focus>팀과 장비의 위험을 최소화해야 한다</focus>
                <key_elements>불안정한 다리, 위험 물질, 고위험 화재 지역 회피</key_elements>
                <tools>현장 모니터링 장치</tools>
                <default>안전한 경로 설정</default>
            </attribute>
            <attribute name="PriorityAreas">
                <focus>가장 큰 도움이 필요한 지역에 우선 도달해야 한다</focus>
                <key_elements>생명에 위협이 되는 화재, 재산 피해가 큰 지역</key_elements>
                <tools>우선 지역 설정 도구</tools>
                <default>위험도가 높은 지역에 우선 접근</default>
            </attribute>
            <attribute name="SpeedAndTime">
                <focus>목적지까지 가장 빠르게 도달할 수 있는 경로를 선택해야 한다</focus>
                <key_elements>장애물 회피 및 실시간 정보를 활용한 빠른 경로 확보</key_elements>
                <tools>교통 상황 실시간 업데이트</tools>
                <default>신속한 이동 경로 확보</default>
            </attribute>
            <attribute name="Communication">
                <focus>실시간 업데이트에 따라 결정을 조정해야 한다</focus>
                <key_elements>디스패치와의 협력 및 무전기를 활용한 동적 경로 조정</key_elements>
                <tools>무전기 및 긴급 상황 관리 시스템</tools>
                <default>효율적 정보 교환</default>
            </attribute>
        </attributes>
        <roles>
            <role id="FireSuppression">
                <person id="Firefighter1">
                    <name>소방대원 A</name>
                    <attributes>
                        <attribute name="Accessibility">장애물 없는 경로 확보</attribute>
                        <attribute name="ProximityToResources">가장 가까운 물 공급원</attribute>
                        <attribute name="Safety">화재 위험 최소화</attribute>
                        <attribute name="PriorityAreas">긴급 화재 진압 지역</attribute>
                        <attribute name="SpeedAndTime">최단 시간 경로</attribute>
                        <attribute name="Communication">디스패치와의 실시간 협력</attribute>
                    </attributes>
                </person>
                <person id="Firefighter2">
                    <name>소방대원 B</name>
                    <attributes>
                        <attribute name="Accessibility">명확한 도로 조건 확보</attribute>
                        <attribute name="ProximityToResources">보급소와 가까운 위치</attribute>
                        <attribute name="Safety">위험 지역 회피</attribute>
                        <attribute name="PriorityAreas">생명 구조 지역</attribute>
                        <attribute name="SpeedAndTime">신속한 이동</attribute>
                        <attribute name="Communication">지휘 센터와 정보 공유</attribute>
                    </attributes>
                </person>
            </role>
            <role id="EvacuationSupport">
                <person id="Evacuator1">
                    <name>대피 지원 요원 A</name>
                    <attributes>
                        <attribute name="Accessibility">장애물 제거된 경로</attribute>
                        <attribute name="ProximityToResources">대피소와 가까운 접근</attribute>
                        <attribute name="Safety">대피 경로 안전 확보</attribute>
                        <attribute name="PriorityAreas">위험 지역 대피 지원</attribute>
                        <attribute name="SpeedAndTime">긴급 대피 경로</attribute>
                        <attribute name="Communication">대피소와 협력</attribute>
                    </attributes>
                </person>
                <person id="Evacuator2">
                    <name>대피 지원 요원 B</name>
                    <attributes>
                        <attribute name="Accessibility">도로 상태 점검 완료</attribute>
                        <attribute name="ProximityToResources">대피소와 최단 거리</attribute>
                        <attribute name="Safety">화재 위험 회피</attribute>
                        <attribute name="PriorityAreas">대규모 대피 필요 지역</attribute>
                        <attribute name="SpeedAndTime">효율적 경로 확보</attribute>
                        <attribute name="Communication">구조 팀과 협력</attribute>
                    </attributes>
                </person>
            </role>
            <role id="EmergencyAid">
                <person id="Aid1">
                    <name>응급처치 요원 A</name>
                    <attributes>
                        <attribute name="Accessibility">응급처치 가능 경로</attribute>
                        <attribute name="ProximityToResources">응급 키트 접근</attribute>
                        <attribute name="Safety">위험 물질 회피</attribute>
                        <attribute name="PriorityAreas">부상자 밀집 지역</attribute>
                        <attribute name="SpeedAndTime">신속한 이동</attribute>
                        <attribute name="Communication">의료 본부와 정보 공유</attribute>
                    </attributes>
                </person>
                <person id="Aid2">
                    <name>응급처치 요원 B</name>
                    <attributes>
                        <attribute name="Accessibility">안전 경로 확보</attribute>
                        <attribute name="ProximityToResources">필요 물자 근접</attribute>
                        <attribute name="Safety">불안정한 인프라 회피</attribute>
                        <attribute name="PriorityAreas">응급환자 지원 지역</attribute>
                        <attribute name="SpeedAndTime">긴급 대응 경로</attribute>
                        <attribute name="Communication">현장팀과 협력</attribute>
                    </attributes>
                </person>
            </role>
        </roles>
    </personal_category>

    <!-- 군인 -->
    <personal_category id="Military" final_destination="안전 확보 지역">
        <attributes>
            <attribute name="Accessibility">
                <focus>차량이 목적지에 쉽게 그리고 효율적으로 도달할 수 있도록 보장</focus>
                <key_elements>드론이나 정찰팀을 활용하여 도로 상태를 실시간으로 평가</key_elements>
                <tools>GPS, 실시간 지도, 드론</tools>
                <default>교통 체증 및 장애물 회피</default>
            </attribute>
            <attribute name="ProximityToResources">
                <focus>공급 기지 또는 대피소와 연결된 경로를 우선적으로 고려</focus>
                <key_elements>식량, 식수 또는 의료 물자와 같은 필수 자원에 접근 가능한 경로</key_elements>
                <tools>자원 추적 시스템, 물류 도구</tools>
                <default>가장 가까운 보급소로 접근</default>
            </attribute>
            <attribute name="Safety">
                <focus>인원과 차량의 위험을 최소화</focus>
                <key_elements>불안정한 기반 시설, 위험 구역, 활동 중인 위협 지역 회피</key_elements>
                <tools>위험 평가 도구, 방어 장비</tools>
                <default>안전한 경로 확보</default>
            </attribute>
            <attribute name="PriorityAreas">
                <focus>가장 중요한 지역을 먼저 지원</focus>
                <key_elements>구조 임무, 높은 사상자 지역, 기반 시설 복구</key_elements>
                <tools>위치 우선순위 시스템</tools>
                <default>위험도가 높은 지역 우선</default>
            </attribute>
            <attribute name="SpeedAndTime">
                <focus>신속하게 지원을 전달하거나 구조를 실행할 수 있는 경로 선택</focus>
                <key_elements>지연을 방지하고 헬리콥터를 사용하여 접근 어려운 지역 지원</key_elements>
                <tools>실시간 교통 정보, 항공 지원</tools>
                <default>최단 시간 내 경로 확보</default>
            </attribute>
            <attribute name="Communication">
                <focus>실시간 업데이트를 활용하여 경로 조정</focus>
                <key_elements>지휘 센터 및 기타 기관과의 정보 공유</key_elements>
                <tools>무전기, 위성 통신 장비</tools>
                <default>효율적이고 정확한 정보 교환</default>
            </attribute>
        </attributes>
        <roles>
            <role id="SearchAndRescue">
                <person id="Soldier1">
                    <name>수색 구조 팀원 A</name>
                    <attributes>
                        <attribute name="Accessibility">정찰 후 장애물 제거 경로</attribute>
                        <attribute name="ProximityToResources">구조 장비와 가까운 위치</attribute>
                        <attribute name="Safety">위험 지역 회피</attribute>
                        <attribute name="PriorityAreas">재난 중심지</attribute>
                        <attribute name="SpeedAndTime">빠른 도달 시간</attribute>
                        <attribute name="Communication">지휘 센터와 협력</attribute>
                    </attributes>
                </person>
                <person id="Soldier2">
                    <name>수색 구조 팀원 B</name>
                    <attributes>
                        <attribute name="Accessibility">명확한 도로 상태 점검</attribute>
                        <attribute name="ProximityToResources">필수 자원 근접</attribute>
                        <attribute name="Safety">위험 평가 후 진행</attribute>
                        <attribute name="PriorityAreas">고립된 피해 지역</attribute>
                        <attribute name="SpeedAndTime">긴급 대응 속도</attribute>
                        <attribute name="Communication">현장팀과 실시간 연결</attribute>
                    </attributes>
                </person>
            </role>
            <role id="LogisticsSupport">
                <person id="Logistician1">
                    <name>물류 지원 팀원 A</name>
                    <attributes>
                        <attribute name="Accessibility">물류 차량 접근 가능한 경로</attribute>
                        <attribute name="ProximityToResources">보급소와 가까운 위치</attribute>
                        <attribute name="Safety">안전한 물류 경로</attribute>
                        <attribute name="PriorityAreas">물자 부족 지역</attribute>
                        <attribute name="SpeedAndTime">신속한 물류 배치</attribute>
                        <attribute name="Communication">물류 팀과 협력</attribute>
                    </attributes>
                </person>
                <person id="Logistician2">
                    <name>물류 지원 팀원 B</name>
                    <attributes>
                        <attribute name="Accessibility">차량 이동 가능한 주요 경로</attribute>
                        <attribute name="ProximityToResources">자원 근접</attribute>
                        <attribute name="Safety">위험 구간 회피</attribute>
                        <attribute name="PriorityAreas">구조 장비가 필요한 지역</attribute>
                        <attribute name="SpeedAndTime">효율적 물류 경로</attribute>
                        <attribute name="Communication">자원 현황 보고</attribute>
                    </attributes>
                </person>
            </role>
            <role id="SecurityAndStability">
                <person id="Security1">
                    <name>보안 및 안정성 요원 A</name>
                    <attributes>
                        <attribute name="Accessibility">긴급 상황 경로 확보</attribute>
                        <attribute name="ProximityToResources">보안 장비 근접</attribute>
                        <attribute name="Safety">무장 장비 사용</attribute>
                        <attribute name="PriorityAreas">위협 요인 제거</attribute>
                        <attribute name="SpeedAndTime">신속 대응 경로</attribute>
                        <attribute name="Communication">안전 보고</attribute>
                    </attributes>
                </person>
                <person id="Security2">
                    <name>보안 및 안정성 요원 B</name>
                    <attributes>
                        <attribute name="Accessibility">도시 외곽 안전 경로</attribute>
                        <attribute name="ProximityToResources">군 기지와 연결</attribute>
                        <attribute name="Safety">위험 지역 방어</attribute>
                        <attribute name="PriorityAreas">고위험 시설 보호</attribute>
                        <attribute name="SpeedAndTime">효율적 이동 경로</attribute>
                        <attribute name="Communication">지휘 센터와 연결</attribute>
                    </attributes>
                </person>
            </role>
        </roles>
    </personal_category>

    <!-- 경찰 -->
    <personal_category id="Police" final_destination="안전 확보 지역">
        <attributes>
            <attribute name="Accessibility">
                <focus>순찰 차량이 주요 지역에 도달할 수 있어야 한다.</focus>
                <key_elements>도로 장애물 제거, 교통 흐름 관리, 잔해 회피</key_elements>
                <tools>GPS, 실시간 교통 제어 시스템</tools>
                <default>차량 진입 가능한 경로</default>
            </attribute>
            <attribute name="ProximityToResources">
                <focus>법 집행 도구와 지원에 접근성을 유지해야 한다.</focus>
                <key_elements>지휘소나 주요 대응 거점 근처에 위치</key_elements>
                <tools>법 집행 도구, 무기 보관소</tools>
                <default>자원 접근성 확보</default>
            </attribute>
            <attribute name="Safety">
                <focus>민간인과 경찰관의 안전을 보호해야 한다.</focus>
                <key_elements>폭동 발생 가능 지역과 불안정한 구조물 회피</key_elements>
                <tools>방어 장비, 위험 분석 도구</tools>
                <default>안전 구역 확보</default>
            </attribute>
            <attribute name="PriorityAreas">
                <focus>대피 경로, 대피소, 고위험 지역에 우선 순위를 둔다.</focus>
                <key_elements>혼잡 지역 및 주요 기반 시설의 보안 유지</key_elements>
                <tools>위치 기반 시스템</tools>
                <default>우선 지역 지원</default>
            </attribute>
            <attribute name="SpeedAndTime">
                <focus>긴급 대응 팀을 위한 경로를 신속히 확보</focus>
                <key_elements>오토바이나 대체 경로 이용</key_elements>
                <tools>실시간 교통 데이터, 무인 항공기</tools>
                <default>신속한 도달</default>
            </attribute>
            <attribute name="Communication">
                <focus>긴급 대응팀 및 디스패치 센터와의 협조 유지</focus>
                <key_elements>실시간 업데이트 및 재경로 설정을 위한 무전기 활용</key_elements>
                <tools>무선 통신 장비, 디스패치 시스템</tools>
                <default>효율적 소통</default>
            </attribute>
        </attributes>
        <roles>
            <role id="EvacuationSupport">
                <person id="PoliceOfficer1">
                    <name>대피 지원 담당 A</name>
                    <attributes>
                        <attribute name="Accessibility">대피소로 연결된 경로 점검</attribute>
                        <attribute name="ProximityToResources">대피소와 가까운 위치</attribute>
                        <attribute name="Safety">민간인 보호</attribute>
                        <attribute name="PriorityAreas">대규모 대피소</attribute>
                        <attribute name="SpeedAndTime">긴급한 경로 확보</attribute>
                        <attribute name="Communication">디스패치와 지속적 협력</attribute>
                    </attributes>
                </person>
                <person id="PoliceOfficer2">
                    <name>대피 지원 담당 B</name>
                    <attributes>
                        <attribute name="Accessibility">장애물 제거된 주요 경로</attribute>
                        <attribute name="ProximityToResources">법 집행 거점 근접</attribute>
                        <attribute name="Safety">위험 지역 회피</attribute>
                        <attribute name="PriorityAreas">혼잡 지역</attribute>
                        <attribute name="SpeedAndTime">효율적 대피 경로 제공</attribute>
                        <attribute name="Communication">현장 상황 실시간 보고</attribute>
                    </attributes>
                </person>
            </role>
            <role id="TrafficManagement">
                <person id="TrafficManager1">
                    <name>교통 관리 요원 A</name>
                    <attributes>
                        <attribute name="Accessibility">주요 도로 교통 흐름 조정</attribute>
                        <attribute name="ProximityToResources">도로 교통 제어 장비 근접</attribute>
                        <attribute name="Safety">교통 혼잡 감소</attribute>
                        <attribute name="PriorityAreas">긴급 차량 이동 경로</attribute>
                        <attribute name="SpeedAndTime">교통 체증 최소화</attribute>
                        <attribute name="Communication">실시간 교통 정보 공유</attribute>
                    </attributes>
                </person>
                <person id="TrafficManager2">
                    <name>교통 관리 요원 B</name>
                    <attributes>
                        <attribute name="Accessibility">긴급 차량 진입 도로 확보</attribute>
                        <attribute name="ProximityToResources">교통 허브 근접</attribute>
                        <attribute name="Safety">안전한 이동 경로</attribute>
                        <attribute name="PriorityAreas">대피소로 연결된 도로</attribute>
                        <attribute name="SpeedAndTime">신속한 교통 흐름 확보</attribute>
                        <attribute name="Communication">교통 팀과 협력</attribute>
                    </attributes>
                </person>
            </role>
            <role id="PublicOrder">
                <person id="PublicOrderOfficer1">
                    <name>치안 유지 담당 A</name>
                    <attributes>
                        <attribute name="Accessibility">고위험 지역 접근</attribute>
                        <attribute name="ProximityToResources">법 집행 도구 근접</attribute>